individual components testing/Line.dss
New "Line.line_1_2" R0=0.1784 X0=0.4047 C1=11.1548556430446 C0=5.249343832021 Bus1=bus1 Bus2=bus2 R1=0.0922 X1=0.0477 Length=1 Units=km
New "Line.line_2_3" R0=0.1784 X0=0.4047 C1=11.1548556430446 C0=5.249343832021 Bus1=bus2 Bus2=bus3 R1=0.493 X1=0.2511 Length=1 Units=km
New "Line.line_3_4" R0=0.1784 X0=0.4047 C1=11.1548556430446 C0=5.249343832021 Bus1=bus3 Bus2=bus4 R1=0.366 X1=0.1864 Length=1 Units=km
New "Line.line_4_5" R0=0.1784 X0=0.4047 C1=11.1548556430446 C0=5.249343832021 Bus1=bus4 Bus2=bus5 R1=0.3811 X1=0.1941 Length=1 Units=km
New "Line.line_5_6" R0=0.1784 X0=0.4047 C1=11.1548556430446 C0=5.249343832021 Bus1=bus5 Bus2=bus6 R1=0.819 X1=0.707 Length=1 Units=km
New "Line.line_6_7" R0=0.1784 X0=0.4047 C1=11.1548556430446 C0=5.249343832021 Bus1=bus6 Bus2=bus7 R1=0.1872 X1=0.6188 Length=1 Units=km
New "Line.line_7_8" R0=0.1784 X0=0.4047 C1=11.1548556430446 C0=5.249343832021 Bus1=bus7 Bus2=bus8 R1=1.7114 X1=1.2351 Length=1 Units=km
New "Line.line_8_9" R0=0.1784 X0=0.4047 C1=11.1548556430446 C0=5.249343832021 Bus1=bus8 Bus2=bus9 R1=1.03 X1=0.74 Length=1 Units=km
New "Line.line_9_10" R0=0.1784 X0=0.4047 C1=11.1548556430446 C0=5.249343832021 Bus1=bus9 Bus2=bus10 R1=1.04 X1=0.74 Length=1 Units=km
New "Line.line_10_11" R0=0.1784 X0=0.4047 C1=11.1548556430446 C0=5.249343832021 Bus1=bus10 Bus2=bus11 R1=0.1966 X1=0.065 Length=1 Units=km
New "Line.line_11_12" R0=0.1784 X0=0.4047 C1=11.1548556430446 C0=5.249343832021 Bus1=bus11 Bus2=bus12 R1=0.3744 X1=0.1238 Length=1 Units=km
New "Line.line_12_13" R0=0.1784 X0=0.4047 C1=11.1548556430446 C0=5.249343832021 Bus1=bus12 Bus2=bus13 R1=1.468 X1=1.155 Length=1 Units=km
New "Line.line_13_14" R0=0.1784 X0=0.4047 C1=11.1548556430446 C0=5.249343832021 Bus1=bus13 Bus2=bus14 R1=0.5416 X1=0.7129 Length=1 Units=km
New "Line.line_14_15" R0=0.1784 X0=0.4047 C1=11.1548556430446 C0=5.249343832021 Bus1=bus14 Bus2=bus15 R1=0.591 X1=0.526 Length=1 Units=km
New "Line.line_15_16" R0=0.1784 X0=0.4047 C1=11.1548556430446 C0=5.249343832021 Bus1=bus15 Bus2=bus16 R1=0.7463 X1=0.545 Length=1 Units=km
New "Line.line_16_17" R0=0.1784 X0=0.4047 C1=11.1548556430446 C0=5.249343832021 Bus1=bus16 Bus2=bus17 R1=1.289 X1=1.721 Length=1 Units=km
New "Line.line_17_18" R0=0.1784 X0=0.4047 C1=11.1548556430446 C0=5.249343832021 Bus1=bus17 Bus2=bus18 R1=0.732 X1=0.574 Length=1 Units=km
New "Line.line_2_19" R0=0.1784 X0=0.4047 C1=11.1548556430446 C0=5.249343832021 Bus1=bus2 Bus2=bus19 R1=0.164 X1=0.1565 Length=1 Units=km
New "Line.line_19_20" R0=0.1784 X0=0.4047 C1=11.1548556430446 C0=5.249343832021 Bus1=bus19 Bus2=bus20 R1=1.5042 X1=1.3554 Length=1 Units=km
New "Line.line_20_21" R0=0.1784 X0=0.4047 C1=11.1548556430446 C0=5.249343832021 Bus1=bus20 Bus2=bus21 R1=0.4095 X1=0.4784 Length=1 Units=km
New "Line.line_21_22" R0=0.1784 X0=0.4047 C1=11.1548556430446 C0=5.249343832021 Bus1=bus21 Bus2=bus22 R1=0.7089 X1=0.9373 Length=1 Units=km
New "Line.line_3_23" R0=0.1784 X0=0.4047 C1=11.1548556430446 C0=5.249343832021 Bus1=bus3 Bus2=bus23 R1=0.4512 X1=0.3083 Length=1 Units=km
New "Line.line_23_24" R0=0.1784 X0=0.4047 C1=11.1548556430446 C0=5.249343832021 Bus1=bus23 Bus2=bus24 R1=0.898 X1=0.7091 Length=1 Units=km
New "Line.line_24_25" R0=0.1784 X0=0.4047 C1=11.1548556430446 C0=5.249343832021 Bus1=bus24 Bus2=bus25 R1=0.896 X1=0.7011 Length=1 Units=km
New "Line.line_6_26" R0=0.1784 X0=0.4047 C1=11.1548556430446 C0=5.249343832021 Bus1=bus6 Bus2=bus26 R1=0.203 X1=0.1034 Length=1 Units=km
New "Line.line_26_27" R0=0.1784 X0=0.4047 C1=11.1548556430446 C0=5.249343832021 Bus1=bus26 Bus2=bus27 R1=0.2842 X1=0.1447 Length=1 Units=km
New "Line.line_27_28" R0=0.1784 X0=0.4047 C1=11.1548556430446 C0=5.249343832021 Bus1=bus27 Bus2=bus28 R1=1.059 X1=0.9337 Length=1 Units=km
New "Line.line_28_29" R0=0.1784 X0=0.4047 C1=11.1548556430446 C0=5.249343832021 Bus1=bus28 Bus2=bus29 R1=0.8042 X1=0.7006 Length=1 Units=km
New "Line.line_29_30" R0=0.1784 X0=0.4047 C1=11.1548556430446 C0=5.249343832021 Bus1=bus29 Bus2=bus30 R1=0.5075 X1=0.2585 Length=1 Units=km
New "Line.line_30_31" R0=0.1784 X0=0.4047 C1=11.1548556430446 C0=5.249343832021 Bus1=bus30 Bus2=bus31 R1=0.9744 X1=0.963 Length=1 Units=km
New "Line.line_31_32" R0=0.1784 X0=0.4047 C1=11.1548556430446 C0=5.249343832021 Bus1=bus31 Bus2=bus32 R1=0.3105 X1=0.3619 Length=1 Units=km
New "Line.line_32_33" R0=0.1784 X0=0.4047 C1=11.1548556430446 C0=5.249343832021 Bus1=bus32 Bus2=bus33 R1=0.341 X1=0.5302 Length=1 Units=km
