individual components testing/Load.dss
New "Load.load_2" Bus1=bus2 Phases=3 kV=12.66 kW=100 kvar=60
New "Load.load_3" Bus1=bus3 Phases=3 kV=12.66 kW=90 kvar=40
New "Load.load_4" Bus1=bus4 Phases=3 kV=12.66 kW=120 kvar=80
New "Load.load_5" Bus1=bus5 Phases=3 kV=12.66 kW=60 kvar=30
New "Load.load_6" Bus1=bus6 Phases=3 kV=12.66 kW=60 kvar=20
New "Load.load_7" Bus1=bus7 Phases=3 kV=12.66 kW=200 kvar=100
New "Load.load_8" Bus1=bus8 Phases=3 kV=12.66 kW=200 kvar=100
New "Load.load_9" Bus1=bus9 Phases=3 kV=12.66 kW=60 kvar=20
New "Load.load_10" Bus1=bus10 Phases=3 kV=12.66 kW=60 kvar=20
New "Load.load_11" Bus1=bus11 Phases=3 kV=12.66 kW=45 kvar=30
New "Load.load_12" Bus1=bus12 Phases=3 kV=12.66 kW=60 kvar=35
New "Load.load_13" Bus1=bus13 Phases=3 kV=12.66 kW=60 kvar=35
New "Load.load_14" Bus1=bus14 Phases=3 kV=12.66 kW=120 kvar=80
New "Load.load_15" Bus1=bus15 Phases=3 kV=12.66 kW=60 kvar=10
New "Load.load_16" Bus1=bus16 Phases=3 kV=12.66 kW=60 kvar=20
New "Load.load_17" Bus1=bus17 Phases=3 kV=12.66 kW=60 kvar=20
New "Load.load_18" Bus1=bus18 Phases=3 kV=12.66 kW=90 kvar=40
New "Load.load_19" Bus1=bus19 Phases=3 kV=12.66 kW=90 kvar=40
New "Load.load_20" Bus1=bus20 Phases=3 kV=12.66 kW=90 kvar=40
New "Load.load_21" Bus1=bus21 Phases=3 kV=12.66 kW=90 kvar=40
New "Load.load_22" Bus1=bus22 Phases=3 kV=12.66 kW=90 kvar=40
New "Load.load_23" Bus1=bus23 Phases=3 kV=12.66 kW=90 kvar=40
New "Load.load_24" Bus1=bus24 Phases=3 kV=12.66 kW=90 kvar=50
New "Load.load_25" Bus1=bus25 Phases=3 kV=12.66 kW=420 kvar=200
New "Load.load_26" Bus1=bus26 Phases=3 kV=12.66 kW=420 kvar=200
New "Load.load_27" Bus1=bus27 Phases=3 kV=12.66 kW=60 kvar=25
New "Load.load_28" Bus1=bus28 Phases=3 kV=12.66 kW=60 kvar=25
New "Load.load_29" Bus1=bus29 Phases=3 kV=12.66 kW=60 kvar=20
New "Load.load_30" Bus1=bus30 Phases=3 kV=12.66 kW=120 kvar=70
New "Load.load_31" Bus1=bus31 Phases=3 kV=12.66 kW=200 kvar=600
New "Load.load_32" Bus1=bus32 Phases=3 kV=12.66 kW=150 kvar=70
New "Load.load_33" Bus1=bus33 Phases=3 kV=12.66 kW=210 kvar=100
